model basic -ndm 3 -ndf 3
nDMaterial ElasticIsotropic 1 2.00000000e+08 0.25 2000.0
# soil column 1x1x10 m, Vs=200.0, Vp=346.4102
node 1 0.0 0.0 0.0
node 2 1.0 0.0 0.0
node 3 1.0 1.0 0.0
node 4 0.0 1.0 0.0
node 5 0.0 0.0 1.0
node 6 1.0 0.0 1.0
node 7 1.0 1.0 1.0
node 8 0.0 1.0 1.0
node 9 0.0 0.0 2.0
node 10 1.0 0.0 2.0
node 11 1.0 1.0 2.0
node 12 0.0 1.0 2.0
node 13 0.0 0.0 3.0
node 14 1.0 0.0 3.0
node 15 1.0 1.0 3.0
node 16 0.0 1.0 3.0
node 17 0.0 0.0 4.0
node 18 1.0 0.0 4.0
node 19 1.0 1.0 4.0
node 20 0.0 1.0 4.0
# ... 24 like lines cut
fix 1 0 1 1
fix 2 0 1 1
fix 3 0 1 1
fix 4 0 1 1
fix 5 0 1 1
fix 6 0 1 1
fix 7 0 1 1
fix 8 0 1 1
fix 9 0 1 1
fix 10 0 1 1
fix 11 0 1 1
fix 12 0 1 1
fix 13 0 1 1
fix 14 0 1 1
fix 15 0 1 1
fix 16 0 1 1
fix 17 0 1 1
fix 18 0 1 1
fix 19 0 1 1
fix 20 0 1 1
# ... 24 like lines cut
element stdBrick 1 1 2 3 4 5 6 7 8 1
element stdBrick 2 5 6 7 8 9 10 11 12 1
element stdBrick 3 9 10 11 12 13 14 15 16 1
element stdBrick 4 13 14 15 16 17 18 19 20 1
element stdBrick 5 17 18 19 20 21 22 23 24 1
element stdBrick 6 21 22 23 24 25 26 27 28 1
element stdBrick 7 25 26 27 28 29 30 31 32 1
element stdBrick 8 29 30 31 32 33 34 35 36 1
element stdBrick 9 33 34 35 36 37 38 39 40 1
element stdBrick 10 37 38 39 40 41 42 43 44 1
element LysmerTriangle 101 1 2 3 2000.0 346.41016151 200.0
element LysmerTriangle 102 1 3 4 2000.0 346.41016151 200.0
timeSeries Path 1 -dt 0.001 -values {-9.8494925197e-09 -1.3050583629e-08 -1.7256266602e-08 -2.2770049262e-08 -2.9983387496e-08 -3.9400015080e-08 -5.1666660525e-08 -6.7611729278e-08 -8.8293892582e-08 -1.1506296358e-07 -1.4963597118e-07 -1.9419197903e-07 -2.5148996006e-07 -3.2501494734e-07 -4.1915876512e-07 -5.3944292616e-07 -6.9279279582e-07 -8.8787390214e-07 -1.1355033548e-06 -1.4491517640e-06 -1.
pattern Plain 1 1 {
    eleLoad -ele 101 102 -type -lysmerVelocityLoader 1
    eleLoad -ele 101 102 -type -fooBarBazNotALoad 1
}
recorder EnergyBalance -file "B2_energy.txt" -time
recorder Node -file "B2_vels.txt" -time -nodeRange 1 44 -dof 1 vel
constraints Plain
numberer RCM
if {[catch {system UmfPack} m]} { if {[catch {system ProfileSPD} m2]} { system FullGeneral } }
integrator Newmark 0.5 0.25
algorithm Linear
analysis Transient
set ok [analyze 600 0.001]
puts "ANALYZE_RETURN $ok"
wipe
puts "DONE"
exit
